Circuit: * C:\Users\walto\Desktop\School\2021-Spring\COMPE-496A\senior_design\mini_project\hysteresis.asc

WARNING: Less than two connections to node NC_01.  This node is used by V2.
WARNING: Less than two connections to node NC_03.  This node is used by R17.
Direct Newton iteration failed to find .op point.  (Use ".option noopiter" to skip.)
Starting Gmin stepping
Gmin = 10
Gmin = 1.07374
Gmin = 0.115292
Gmin = 0.0123794
Gmin = 0.00132923
Gmin = 0.000142725
Gmin = 1.5325e-005
Gmin = 1.6455e-006
Gmin = 1.76685e-007
Gmin = 1.89714e-008
Gmin = 2.03704e-009
Gmin = 2.18725e-010
Gmin = 2.34854e-011
Gmin = 2.52173e-012
Gmin = 2.70769e-013
Gmin = 0
Gmin stepping succeeded in finding the operating point.


Date: Fri Mar 12 09:50:47 2021
Total elapsed time: 0.932 seconds.

tnom = 27
temp = 27
method = modified trap
totiter = 92812
traniter = 92375
tranpoints = 42000
accept = 25691
rejected = 16309
matrix size = 64
fillins = 46
solver = Normal
Matrix Compiler1: 4.55 KB object code size  0.7/0.4/[0.3]
Matrix Compiler2: 5.39 KB object code size  0.5/0.7/[0.3]

