Circuit: * D:\walto\Files\School\Fall_2021\COMPE-496B\senior_design\LTSpice\Filters\power_resistor\power_resistor.asc

Early termination of direct N-R iteration.
Direct Newton iteration failed to find .op point.  (Use ".option noopiter" to skip.)
Starting Gmin stepping
Gmin = 10
vernier = 0.5
vernier = 0.25
vernier = 0.125
Gmin = 5.5165
vernier = 0.0625
vernier = 0.03125
vernier = 0.015625
vernier = 0.0078125
Gmin = 5.49501
vernier = 0.00390625
vernier = 0.00195313
vernier = 0.000976563
vernier = 0.000488281
Gmin = 5.50104
Gmin = 0
Gmin stepping failed

Starting source stepping with srcstepmethod=0
Source Step = 3.0303%
Source Step = 33.3333%
Source Step = 63.6364%
Source Step = 93.9394%
Source stepping succeeded in finding the operating point.


Date: Wed Sep 08 11:25:20 2021
Total elapsed time: 0.326 seconds.

tnom = 27
temp = 27
method = modified trap
totiter = 2497
traniter = 824
tranpoints = 413
accept = 299
rejected = 114
matrix size = 104
fillins = 1043
solver = Normal
Thread vector: 4.7/3.2[2] 1.4/1.2[2] 1.8/1.5[2] 0.5/2.4[1]  2592/500
Matrix Compiler1: 125.55 KB object code size  10.5/4.6/[3.8]
Matrix Compiler2: 27.61 KB object code size  2.1/1.5/[1.2]

