Circuit: * D:\walto\Files\School\Fall_2021\COMPE-496B\senior_design\LTSpice\Filters\12V_lowinput\Draft1.asc

Direct Newton iteration for .op point succeeded.

Date: Tue Aug 31 20:01:31 2021
Total elapsed time: 0.013 seconds.

tnom = 27
temp = 27
method = modified trap
totiter = 835
traniter = 832
tranpoints = 417
accept = 261
rejected = 156
matrix size = 3
fillins = 0
solver = Normal
Matrix Compiler1:       5 opcodes  0.0/[0.0]/0.0
Matrix Compiler2: off  [0.0]/0.0/0.0

